Version 4
SHEET 1 1824 888
WIRE 384 -96 256 -96
WIRE 400 -96 384 -96
WIRE 512 -96 480 -96
WIRE 640 -96 512 -96
WIRE 384 48 384 -96
WIRE 512 48 512 -96
WIRE 256 112 256 -32
WIRE 304 112 256 112
WIRE 640 112 640 -32
WIRE 640 112 592 112
WIRE 240 208 80 208
WIRE 304 208 240 208
WIRE 832 208 592 208
WIRE 928 208 832 208
WIRE 1088 208 928 208
WIRE 1152 208 1088 208
WIRE 1264 208 1152 208
WIRE 1312 208 1264 208
WIRE 1424 208 1312 208
WIRE 1088 224 1088 208
WIRE 80 256 80 208
WIRE 1312 256 1312 208
WIRE 1424 256 1424 208
WIRE 1264 272 1264 208
WIRE 240 304 240 208
WIRE 304 304 240 304
WIRE 608 304 592 304
WIRE 704 304 688 304
WIRE 784 304 768 304
WIRE 928 304 928 288
WIRE 928 304 784 304
WIRE 1008 304 928 304
WIRE 1088 304 1088 288
WIRE 928 320 928 304
WIRE 1264 384 1264 336
WIRE 1312 384 1312 320
WIRE 1360 384 1312 384
WIRE 1424 384 1424 336
WIRE 1424 384 1360 384
WIRE 80 400 80 336
WIRE 128 400 80 400
WIRE 240 400 240 304
WIRE 240 400 192 400
WIRE 304 400 240 400
WIRE 784 400 784 304
WIRE 784 400 592 400
WIRE 1360 400 1360 384
WIRE 1264 480 1264 384
WIRE 1312 480 1264 480
WIRE 304 496 240 496
WIRE 656 496 592 496
WIRE 1264 496 1264 480
WIRE 240 544 240 496
WIRE 656 544 656 496
WIRE 656 544 240 544
WIRE 304 592 240 592
WIRE 656 592 656 544
WIRE 656 592 592 592
WIRE 1264 608 1264 576
WIRE 1360 608 1360 496
WIRE 1360 608 1264 608
WIRE 80 768 80 400
WIRE 240 768 240 672
WIRE 240 768 80 768
WIRE 384 768 384 656
WIRE 384 768 240 768
WIRE 512 768 512 656
WIRE 512 768 384 768
WIRE 656 768 656 656
WIRE 656 768 512 768
WIRE 928 768 928 400
WIRE 928 768 656 768
WIRE 1152 768 1152 272
WIRE 1152 768 928 768
WIRE 1360 768 1360 608
WIRE 1360 768 1152 768
WIRE 80 800 80 768
FLAG 80 800 0
FLAG 832 208 VOUT
FLAG 1264 384 gate
SYMBOL PowerProducts/LTC3115-1 448 352 R0
SYMATTR InstName U1
SYMBOL voltage 80 240 R0
SYMATTR InstName V1
SYMATTR Value 24
SYMATTR SpiceLine Rser=4
SYMBOL res 704 288 R90
WINDOW 0 0 56 VBottom 2
WINDOW 3 32 56 VTop 2
SYMATTR InstName R1
SYMATTR Value 40.2k
SYMBOL cap 768 288 R90
WINDOW 0 0 32 VBottom 2
WINDOW 3 32 32 VTop 2
SYMATTR InstName C1
SYMATTR Value 820p
SYMBOL res 912 192 R0
SYMATTR InstName R2
SYMATTR Value 1meg
SYMBOL res 224 576 R0
SYMATTR InstName R3
SYMATTR Value 35.7k
SYMBOL cap 640 592 R0
SYMATTR InstName C2
SYMATTR Value 10µ
SYMBOL res 912 304 R0
SYMATTR InstName R4
SYMATTR Value 90.9k
SYMBOL res 1104 288 R90
WINDOW 0 0 56 VBottom 2
WINDOW 3 32 56 VTop 2
SYMATTR InstName R5
SYMATTR Value 10k
SYMBOL cap 1072 224 R0
SYMATTR InstName C3
SYMATTR Value 33p
SYMBOL ind 496 -112 R90
WINDOW 0 5 56 VBottom 2
WINDOW 3 32 56 VTop 2
SYMATTR InstName L1
SYMATTR Value 10µ
SYMATTR SpiceLine Ipk=3.5 Rser=128m Rpar=15.849K Cpar=0 mfg="Bourns, Inc." pn="SRP5030T-100M"
SYMBOL cap 240 -96 R0
SYMATTR InstName C4
SYMATTR Value .1µ
SYMBOL cap 624 -96 R0
SYMATTR InstName C5
SYMATTR Value .1µ
SYMBOL cap 192 384 R90
WINDOW 0 0 32 VBottom 2
WINDOW 3 32 32 VTop 2
SYMATTR InstName C6
SYMATTR Value 22µ
SYMBOL res 1408 240 R0
SYMATTR InstName LOAD
SYMATTR Value R=limit(1.5, V(VOUT)**2/10, 20)
SYMBOL cap 1136 208 R0
SYMATTR InstName C7
SYMATTR Value 22µ
SYMBOL nmos 1312 400 R0
SYMATTR InstName M1
SYMATTR Value FDC637AN
SYMBOL zener 1280 336 R180
WINDOW 0 24 64 Left 2
WINDOW 3 24 0 Left 2
SYMATTR InstName D1
SYMATTR Value BZX84C8V2L
SYMBOL res 1248 480 R0
SYMATTR InstName R6
SYMATTR Value 700
SYMBOL cap 1296 256 R0
SYMATTR InstName C8
SYMATTR Value 500µ
TEXT 144 872 Left 2 !.tran 1m 20m UIC
