Version 4
SHEET 1 3476 1348
WIRE 32 -208 -64 -208
WIRE 144 -208 32 -208
WIRE 480 -208 144 -208
WIRE 672 -208 480 -208
WIRE 784 -208 752 -208
WIRE 816 -208 784 -208
WIRE 912 -208 880 -208
WIRE 976 -208 912 -208
WIRE 1088 -208 1040 -208
WIRE 1152 -208 1088 -208
WIRE 1248 -208 1152 -208
WIRE 1344 -208 1248 -208
WIRE -64 -192 -64 -208
WIRE 32 -192 32 -208
WIRE 144 -192 144 -208
WIRE 1152 -192 1152 -208
WIRE 1248 -192 1248 -208
WIRE 1344 -192 1344 -208
WIRE 912 -176 912 -208
WIRE 480 -160 480 -208
WIRE -64 -96 -64 -112
WIRE 32 -96 32 -128
WIRE 144 -96 144 -112
WIRE 320 -96 144 -96
WIRE 656 -96 640 -96
WIRE 736 -96 720 -96
WIRE 1152 -96 1152 -128
WIRE 1248 -96 1248 -128
WIRE 1344 -96 1344 -112
WIRE 144 -80 144 -96
WIRE 784 -80 784 -208
WIRE 912 -64 912 -96
WIRE 736 0 640 0
WIRE 144 16 144 0
WIRE 224 96 208 96
WIRE 320 96 304 96
WIRE 784 96 784 16
WIRE 784 96 640 96
WIRE 800 96 784 96
WIRE 896 96 880 96
WIRE 1088 96 1088 -208
WIRE 160 192 144 192
WIRE 320 192 304 192
WIRE 1088 192 1088 176
WIRE 1088 192 640 192
WIRE 1088 208 1088 192
WIRE 480 272 480 256
WIRE 1088 304 1088 288
FLAG 480 272 0
FLAG -64 -96 0
FLAG 208 96 0
FLAG 256 0 0
FLAG -64 -208 IN
FLAG 144 16 0
FLAG 32 -96 0
FLAG 896 96 0
FLAG 736 -96 0
FLAG 912 -64 0
FLAG 1152 -96 0
FLAG 1088 304 0
FLAG 1344 -96 0
FLAG 144 192 0
FLAG 1344 -208 OUT
FLAG 1248 -96 0
SYMBOL voltage -64 -208 R0
WINDOW 123 0 0 Left 2
WINDOW 3 30 87 Left 2
SYMATTR Value PULSE(0 33.6 0 8m 0 1)
SYMATTR SpiceLine Rser=0
SYMATTR InstName V1
SYMBOL res 128 -208 R0
SYMATTR InstName R1
SYMATTR Value 154K
SYMATTR SpiceLine pwr=0.5
SYMBOL cap 320 -16 R90
WINDOW 0 0 32 VBottom 2
WINDOW 3 32 32 VTop 2
SYMATTR InstName C1
SYMATTR Value 10n
SYMBOL res 320 112 M270
WINDOW 0 32 56 VTop 2
WINDOW 3 0 56 VBottom 2
SYMATTR InstName R2
SYMATTR Value 10.5k
SYMBOL res 128 -96 R0
SYMATTR InstName R3
SYMATTR Value 32.4K
SYMBOL cap 16 -192 R0
WINDOW 3 40 32 Left 2
WINDOW 39 26 58 Left 2
SYMATTR Value 2.2µ
SYMATTR SpiceLine x2
SYMATTR InstName C2
SYMBOL nmos 736 -80 R0
SYMATTR InstName Q1
SYMATTR Value SI7454DP
SYMBOL res 784 112 R270
WINDOW 0 32 56 VTop 2
WINDOW 3 0 56 VBottom 2
SYMATTR InstName R4
SYMATTR Value 20m
SYMBOL cap 720 -112 R90
WINDOW 0 0 32 VBottom 2
WINDOW 3 32 32 VTop 2
SYMATTR InstName C3
SYMATTR Value 4.7µ
SYMBOL ind2 656 -192 R270
WINDOW 0 32 56 VTop 2
WINDOW 3 5 56 VBottom 2
SYMATTR InstName L1
SYMATTR Value 5µ
SYMATTR Type ind
SYMATTR SpiceLine Rser=.05
SYMBOL cap 880 -224 R90
WINDOW 0 0 32 VBottom 2
WINDOW 3 32 32 VTop 2
SYMATTR InstName C4
SYMATTR Value 1µ
SYMATTR SpiceLine Rser=.01
SYMBOL schottky 976 -192 R270
WINDOW 0 32 32 VTop 2
WINDOW 3 0 41 VBottom 2
SYMATTR InstName D1
SYMATTR Value MBRS340
SYMATTR Description Diode
SYMATTR Type diode
SYMBOL cap 1136 -192 R0
WINDOW 3 37 32 Left 2
WINDOW 40 28 57 Left 2
SYMATTR Value 47µ
SYMATTR SpiceLine2 x2
SYMATTR InstName C5
SYMATTR SpiceLine Rser=.02
SYMBOL res 1072 80 R0
SYMATTR InstName R5
SYMATTR Value 105K
SYMBOL res 1072 192 R0
SYMATTR InstName R6
SYMATTR Value 15.8K
SYMBOL res 1328 -208 R0
SYMATTR InstName R7
SYMATTR Value R=limit(1, V(OUT)/(15/V(OUT)), 20)
SYMBOL ind2 896 -80 M180
WINDOW 0 36 80 Left 2
WINDOW 3 36 40 Left 2
SYMATTR InstName L2
SYMATTR Value 5µ
SYMATTR Type ind
SYMATTR SpiceLine Rser=.05
SYMBOL res 208 176 M90
WINDOW 0 0 56 VBottom 2
WINDOW 3 32 56 VTop 2
SYMATTR InstName R8
SYMATTR Value 22K
SYMBOL cap 224 176 R90
WINDOW 0 0 32 VBottom 2
WINDOW 3 32 32 VTop 2
SYMATTR InstName C6
SYMATTR Value .01µ
SYMBOL cap 1232 -192 R0
WINDOW 3 37 32 Left 2
WINDOW 40 28 57 Left 2
SYMATTR Value 10µ
SYMATTR SpiceLine2 x4
SYMATTR InstName C7
SYMATTR SpiceLine Rser=.001
SYMBOL PowerProducts/LT3758A 480 48 R0
SYMATTR InstName U2
TEXT 0 312 Left 2 ;Note:\n  If the simulation model is not found please update with the "Sync Release" command from the "Tools" menu.\n  It remains the customer's responsibility to verify proper and reliable operation in the actual application.\n  Component substitution and printed circuit board layout may significantly affect circuit performance or reliability.\n  Contact your local sales representative for assistance. This circuit is distributed to customers only for use with LTC parts.\n  Copyright © 2012 Linear Technology Inc. All rights reserved.
TEXT 648 -288 Bottom 2 ;LT3758 - High Input Voltage, Boost, Flyback, SEPIC and Inverting Controller\nHigh Efficiency SEPIC Converter\nInput: 8V to 72V   Output: 12V @ 2A, Fsw: 300kHz
TEXT 848 -256 Bottom 2 !K L1 L2 1
TEXT 784 264 Left 2 !.tran 10m startup
