Version 4
SHEET 1 3068 2420
WIRE -144 -352 -272 -352
WIRE 96 -352 -144 -352
WIRE 208 -352 96 -352
WIRE 400 -352 288 -352
WIRE 480 -352 400 -352
WIRE 592 -352 544 -352
WIRE 720 -352 592 -352
WIRE 848 -352 816 -352
WIRE 864 -352 848 -352
WIRE 960 -352 944 -352
WIRE 1008 -352 960 -352
WIRE 1072 -352 1008 -352
WIRE 1184 -352 1072 -352
WIRE 1280 -352 1184 -352
WIRE -272 -336 -272 -352
WIRE 400 -336 400 -352
WIRE 1072 -336 1072 -352
WIRE 1184 -336 1184 -352
WIRE 1280 -336 1280 -352
WIRE 592 -320 592 -352
WIRE 352 -256 192 -256
WIRE -272 -240 -272 -256
WIRE 1072 -240 1072 -272
WIRE 1184 -240 1184 -272
WIRE 1280 -240 1280 -256
WIRE 592 -208 592 -240
WIRE 400 -192 400 -240
WIRE 400 -192 304 -192
WIRE 400 -176 400 -192
WIRE 800 -160 800 -304
WIRE 800 -160 480 -160
WIRE 400 -80 400 -96
WIRE 400 -80 368 -80
WIRE 400 -64 400 -80
WIRE 192 -16 192 -256
WIRE 304 -16 304 -192
WIRE 368 -16 368 -80
WIRE 480 -16 480 -160
WIRE -144 0 -144 -352
WIRE 96 32 96 -352
WIRE 128 32 96 32
WIRE 848 32 848 -352
WIRE 848 32 544 32
WIRE -144 96 -144 80
WIRE 128 96 -144 96
WIRE 960 96 960 -352
WIRE 960 96 544 96
WIRE -144 112 -144 96
WIRE 128 160 112 160
WIRE 608 160 544 160
WIRE 816 160 672 160
WIRE 1008 160 1008 -352
WIRE 1008 160 816 160
WIRE 1008 192 1008 160
WIRE -144 208 -144 192
WIRE 0 224 -16 224
WIRE 128 224 0 224
WIRE 560 224 544 224
WIRE 656 224 640 224
WIRE 128 288 16 288
WIRE 1008 288 1008 272
WIRE 1008 288 544 288
WIRE 0 352 0 224
WIRE 32 352 0 352
WIRE 128 352 112 352
WIRE 592 352 544 352
WIRE 640 352 592 352
WIRE 736 352 720 352
WIRE 592 368 592 352
WIRE 736 368 736 352
WIRE 208 416 208 400
WIRE 336 416 336 400
WIRE 448 416 448 400
WIRE 592 448 592 432
WIRE 736 448 736 432
WIRE 208 496 208 480
WIRE 448 496 448 480
WIRE 16 528 16 288
WIRE 816 528 816 160
WIRE 816 528 16 528
FLAG 1280 -240 0
FLAG 1280 -352 OUT
FLAG 208 496 0
FLAG 592 448 0
FLAG 736 448 0
FLAG -144 208 0
FLAG 656 224 0
FLAG 448 496 0
FLAG 336 416 0
FLAG -80 224 0
FLAG 400 -64 0
FLAG 1072 -240 0
FLAG -272 -240 0
FLAG 1184 -240 0
FLAG 112 160 0
FLAG -272 -352 IN
FLAG 592 -208 0
SYMBOL voltage -272 -352 R0
WINDOW 123 0 0 Left 2
WINDOW 39 24 124 Left 2
SYMATTR InstName V1
SYMATTR Value 12
SYMBOL res -160 96 R0
SYMATTR InstName R1
SYMATTR Value 10K
SYMBOL res -160 -16 R0
SYMATTR InstName R2
SYMATTR Value 12.7K
SYMBOL res 544 208 M90
WINDOW 0 0 56 VBottom 2
WINDOW 3 32 56 VTop 2
SYMATTR InstName R3
SYMATTR Value 118K
SYMBOL cap -16 208 R90
WINDOW 0 0 32 VBottom 2
WINDOW 3 32 32 VTop 2
SYMATTR InstName C1
SYMATTR Value 2.2µ
SYMATTR SpiceLine Rser=2m
SYMBOL ind2 192 -336 R270
WINDOW 0 32 56 VTop 2
WINDOW 3 5 56 VBottom 2
SYMATTR InstName L1
SYMATTR Value 2.2µ
SYMATTR Type ind
SYMATTR SpiceLine Rser=4.2m
SYMBOL ind2 576 -224 M180
WINDOW 0 36 80 Left 2
WINDOW 3 36 40 Left 2
SYMATTR InstName L2
SYMATTR Value 2.2µ
SYMATTR Type ind
SYMATTR SpiceLine Rser=4.2m
SYMBOL cap 192 416 R0
SYMATTR InstName C2
SYMATTR Value 47n
SYMATTR SpiceLine Rser=2m
SYMBOL cap 432 416 R0
SYMATTR InstName C3
SYMATTR Value 10n
SYMATTR SpiceLine Rser=2m
SYMBOL cap 576 368 R0
SYMATTR InstName C4
SYMATTR Value 100p
SYMBOL cap 720 368 R0
SYMATTR InstName C5
SYMATTR Value 4.7n
SYMBOL res 624 368 R270
WINDOW 0 32 56 VTop 2
WINDOW 3 0 56 VBottom 2
SYMATTR InstName R4
SYMATTR Value 12.1K
SYMBOL res 960 -336 M270
WINDOW 0 32 56 VTop 2
WINDOW 3 0 56 VBottom 2
SYMATTR InstName R5
SYMATTR Value 6m
SYMBOL res 384 -192 R0
WINDOW 3 27 80 Left 2
SYMATTR Value 2m
SYMATTR InstName R6
SYMBOL res 992 176 R0
SYMATTR InstName R7
SYMATTR Value 45.3K
SYMBOL nmos 352 -336 R0
WINDOW 3 38 106 Right 2
SYMATTR Value IPP039N04L
SYMATTR InstName Q1
SYMBOL pmos 720 -304 R270
WINDOW 0 61 46 VTop 2
WINDOW 3 -22 69 VLeft 2
SYMATTR InstName Q2
SYMATTR Value Si4401DY
SYMBOL cap 480 -336 R270
WINDOW 0 32 32 VTop 2
WINDOW 3 0 32 VBottom 2
SYMATTR InstName C6
SYMATTR Value 30µ
SYMATTR SpiceLine Rser=2m
SYMBOL polcap 1200 -336 M0
WINDOW 0 -31 6 Left 2
WINDOW 3 -45 57 Left 2
SYMATTR InstName C7
SYMATTR Value 330µ
SYMATTR SpiceLine Rser=16m
SYMBOL cap 1056 -336 R0
WINDOW 3 19 56 Left 2
SYMATTR Value 200µ
SYMATTR InstName C8
SYMATTR SpiceLine Rser=0.002
SYMBOL res 16 368 R270
WINDOW 0 32 56 VTop 2
WINDOW 3 0 56 VBottom 2
SYMATTR InstName R8
SYMATTR Value 100K
SYMBOL LT8710 336 192 R0
SYMATTR InstName U1
SYMBOL cap 608 144 M90
WINDOW 0 0 32 VBottom 2
WINDOW 3 32 32 VTop 2
SYMATTR InstName C9
SYMATTR Value 2.2µ
SYMBOL res 1264 -352 R0
SYMATTR InstName Rload
SYMATTR Value 0.84
TEXT 872 344 Left 2 !.tran 2.5m startup
TEXT 408 -368 Bottom 2 !K1 L1 L2 1
TEXT 464 -424 Bottom 2 ;LT8710 -- Synchronous SEPIC/ Inverting / Boost Controller with Output Current Control\nSynchronous SEPIC DC/DC Converter with Output Current Control\nInput: 4.5V to 28V       Output: 5V @ 6A, Fsw = 300kHz
TEXT -144 544 Left 2 ;Note:\n  If the simulation model is not found please update with the "Sync Release" command from the "Tools" menu.\n  It remains the customer's responsibility to verify proper and reliable operation in the actual application.\n  Component substitution and printed circuit board layout may significantly affect circuit performance or reliability.\n  Contact your local sales representative for assistance. This circuit is distributed to customers only for use with LTC parts.\n  Copyright © 2014 Linear Technology Inc. All rights reserved.
