Version 4
SHEET 1 1428 880
WIRE 336 80 288 80
WIRE 448 80 416 80
WIRE 880 96 656 96
WIRE 1040 96 880 96
WIRE 656 128 656 96
WIRE 880 128 880 96
WIRE 288 192 288 80
WIRE 336 192 288 192
WIRE 448 192 448 80
WIRE 448 192 400 192
WIRE 496 192 448 192
WIRE 608 192 576 192
WIRE 736 192 704 192
WIRE 880 256 880 208
WIRE 880 256 768 256
WIRE 448 272 448 192
WIRE 1040 304 1040 96
WIRE 288 320 288 192
WIRE 432 320 288 320
WIRE 832 320 528 320
WIRE 944 320 896 320
WIRE 288 352 288 320
WIRE 288 448 288 432
WIRE 736 448 736 192
WIRE 736 448 288 448
WIRE 768 448 768 256
WIRE 768 448 736 448
WIRE 816 448 768 448
WIRE 944 448 944 320
WIRE 944 448 896 448
WIRE 288 464 288 448
WIRE 768 480 768 448
WIRE 288 576 288 544
WIRE 432 576 288 576
WIRE 816 576 528 576
WIRE 944 576 944 448
WIRE 944 576 880 576
WIRE 288 688 288 576
WIRE 336 688 288 688
WIRE 448 688 448 624
WIRE 448 688 400 688
WIRE 496 688 448 688
WIRE 608 688 576 688
WIRE 736 688 736 448
WIRE 736 688 704 688
WIRE 736 784 736 688
WIRE 288 800 288 688
WIRE 336 800 288 800
WIRE 448 800 448 688
WIRE 448 800 416 800
WIRE 656 800 656 752
WIRE 672 800 656 800
WIRE 1040 800 1040 304
WIRE 1040 800 736 800
FLAG 768 480 0
FLAG 448 192 GATE-MAIN
FLAG 944 448 OUT
FLAG 448 688 GATE-AUX
FLAG 288 320 MAIN
FLAG 288 576 AUX
FLAG 1040 304 LOGIC
SYMBOL pmos 528 272 R90
SYMATTR InstName M1
SYMATTR Value FDS4685
SYMBOL voltage 288 336 M0
SYMATTR InstName BATT-MAIN
SYMATTR Value PULSE(20 34 0 10ms 10ms 0 0 10)
SYMBOL res 480 208 R270
WINDOW 0 32 56 VTop 2
WINDOW 3 0 56 VBottom 2
SYMATTR InstName R1
SYMATTR Value 10k
SYMBOL zener 400 176 R90
WINDOW 0 -4 32 VBottom 2
WINDOW 3 36 32 VTop 2
SYMATTR InstName D1
SYMATTR Value BZX84C15L
SYMBOL voltage 880 112 R0
SYMATTR InstName LOGIC-CONTROL
SYMATTR Value PULSE(0 5 3ms 1u 1u 3ms 6ms 100)
SYMBOL res 432 64 R90
WINDOW 0 0 56 VBottom 2
WINDOW 3 32 56 VTop 2
SYMATTR InstName R3
SYMATTR Value 20k
SYMBOL npn3 608 128 M90
SYMATTR InstName Q1
SYMATTR Value 2N3904
SYMBOL pmos 528 624 M270
SYMATTR InstName M2
SYMATTR Value FDS4685
SYMBOL zener 400 672 R90
WINDOW 0 -4 32 VBottom 2
WINDOW 3 36 32 VTop 2
SYMATTR InstName D2
SYMATTR Value BZX84C15L
SYMBOL res 432 784 R90
WINDOW 0 0 56 VBottom 2
WINDOW 3 32 56 VTop 2
SYMATTR InstName R4
SYMATTR Value 20k
SYMBOL res 480 704 R270
WINDOW 0 32 56 VTop 2
WINDOW 3 0 56 VBottom 2
SYMATTR InstName R5
SYMATTR Value 10k
SYMBOL npn3 608 752 R270
SYMATTR InstName Q2
SYMATTR Value 2N3904
SYMBOL Digital/inv 736 864 R180
SYMATTR InstName A1
SYMBOL voltage 288 560 R180
WINDOW 0 24 96 Left 2
WINDOW 3 24 16 Left 2
SYMATTR InstName BATT-AUX
SYMATTR Value PULSE(7 20 0 10ms 10ms 0 0 10)
SYMBOL schottky 832 336 R270
WINDOW 0 32 32 VTop 2
WINDOW 3 0 32 VBottom 2
SYMATTR InstName D3
SYMATTR Value B540C
SYMATTR Description Diode
SYMATTR Type diode
SYMBOL schottky 816 592 R270
WINDOW 0 32 32 VTop 2
WINDOW 3 0 32 VBottom 2
SYMATTR InstName D4
SYMATTR Value B540C
SYMATTR Description Diode
SYMATTR Type diode
SYMBOL res 912 432 R90
WINDOW 0 0 56 VBottom 2
WINDOW 3 32 56 VTop 2
SYMATTR InstName R-LOAD
SYMATTR Value 5
TEXT 1208 800 Left 2 !.tran 1u 20m
