Version 4
SHEET 1 2144 976
WIRE 896 -80 784 -80
WIRE 784 -48 784 -80
WIRE 704 0 688 0
WIRE 896 16 896 -80
WIRE 336 80 288 80
WIRE 448 80 416 80
WIRE 496 80 448 80
WIRE 656 80 576 80
WIRE 688 80 688 0
WIRE 688 80 656 80
WIRE 896 80 896 16
WIRE 688 112 688 80
WIRE 720 112 688 112
WIRE 800 112 800 0
WIRE 800 112 784 112
WIRE 688 144 688 112
WIRE 288 192 288 80
WIRE 336 192 288 192
WIRE 448 192 448 80
WIRE 448 192 400 192
WIRE 496 192 448 192
WIRE 608 192 576 192
WIRE 752 192 704 192
WIRE 800 192 800 112
WIRE 800 192 752 192
WIRE 896 192 896 160
WIRE 896 192 800 192
WIRE 448 272 448 192
WIRE 288 320 288 192
WIRE 336 320 288 320
WIRE 432 320 400 320
WIRE 816 320 528 320
WIRE 864 320 816 320
WIRE 896 320 864 320
WIRE 1008 320 896 320
WIRE 288 352 288 320
WIRE 896 352 896 320
WIRE 1008 352 1008 320
WIRE 288 448 288 432
WIRE 752 448 752 192
WIRE 752 448 288 448
WIRE 896 448 896 416
WIRE 896 448 752 448
WIRE 1008 448 1008 416
WIRE 1008 448 896 448
WIRE 288 464 288 448
WIRE 896 496 896 448
WIRE 288 576 288 544
WIRE 336 576 288 576
WIRE 432 576 400 576
WIRE 816 576 816 320
WIRE 816 576 528 576
WIRE 288 688 288 576
WIRE 336 688 288 688
WIRE 448 688 448 624
WIRE 448 688 400 688
WIRE 496 688 448 688
WIRE 608 688 576 688
WIRE 752 688 752 448
WIRE 752 688 704 688
WIRE 688 768 688 736
WIRE 768 768 688 768
WIRE 800 768 768 768
WIRE 288 800 288 688
WIRE 336 800 288 800
WIRE 448 800 448 688
WIRE 448 800 416 800
FLAG 896 496 0
FLAG 448 192 GATE-MAIN
FLAG 864 320 OUT
FLAG 448 688 GATE-AUX
FLAG 288 320 MAIN
FLAG 288 576 AUX
FLAG 896 16 LOGIC
FLAG 768 768 LOGIC
FLAG 656 80 GATE-MAIN-2
SYMBOL voltage 288 336 M0
SYMATTR InstName BATT-MAIN
SYMATTR Value PULSE(20 34 0 10ms 10ms 0 0 10)
SYMBOL res 320 64 M90
WINDOW 0 0 56 VBottom 2
WINDOW 3 32 56 VTop 2
SYMATTR InstName R3
SYMATTR Value 10k
SYMBOL pmos 528 624 M270
SYMATTR InstName M2
SYMATTR Value FDS4685
SYMBOL res 432 784 R90
WINDOW 0 0 56 VBottom 2
WINDOW 3 32 56 VTop 2
SYMATTR InstName R4
SYMATTR Value 10k
SYMBOL res 480 704 R270
WINDOW 0 32 56 VTop 2
WINDOW 3 0 56 VBottom 2
SYMATTR InstName R5
SYMATTR Value 3k
SYMBOL voltage 288 560 R180
WINDOW 0 24 96 Left 2
WINDOW 3 24 16 Left 2
SYMATTR InstName BATT-AUX
SYMATTR Value PULSE(7 20 0 10ms 10ms 0 0 10)
SYMBOL schottky 336 336 R270
WINDOW 0 32 32 VTop 2
WINDOW 3 0 32 VBottom 2
SYMATTR InstName D3
SYMATTR Value B540C
SYMATTR Description Diode
SYMATTR Type diode
SYMBOL schottky 336 592 R270
WINDOW 0 32 32 VTop 2
WINDOW 3 0 32 VBottom 2
SYMATTR InstName D4
SYMATTR Value B540C
SYMATTR Description Diode
SYMATTR Type diode
SYMBOL res 480 64 M90
WINDOW 0 0 56 VBottom 2
WINDOW 3 32 56 VTop 2
SYMATTR InstName R2
SYMATTR Value 200k
SYMBOL Misc/signal 896 64 R0
SYMATTR InstName V1
SYMATTR Value PULSE(0 4 3m 1n 1n 3m 6m 100)
SYMBOL zener 784 96 R90
WINDOW 0 -4 32 VBottom 2
WINDOW 3 36 32 VTop 2
SYMATTR InstName D5
SYMATTR Value BZX84C15L
SYMBOL res 480 176 M90
WINDOW 0 0 56 VBottom 2
WINDOW 3 32 56 VTop 2
SYMATTR InstName R1
SYMATTR Value 3k
SYMBOL pmos 528 272 R90
SYMATTR InstName M1
SYMATTR Value FDS4685
SYMBOL nmos 704 -48 M90
SYMATTR InstName M3
SYMATTR Value FDMC8462
SYMBOL nmos 608 736 R270
SYMATTR InstName M5
SYMATTR Value FDMC8462
SYMBOL zener 400 176 R90
WINDOW 0 -4 32 VBottom 2
WINDOW 3 36 32 VTop 2
SYMATTR InstName D1
SYMATTR Value BZX84C15L
SYMBOL zener 400 672 R90
WINDOW 0 -4 32 VBottom 2
WINDOW 3 36 32 VTop 2
SYMATTR InstName D2
SYMATTR Value BZX84C15L
SYMBOL nmos 608 144 M90
SYMATTR InstName M4
SYMATTR Value FDMC8462
SYMBOL load 880 352 R0
SYMATTR InstName I1
SYMATTR Value 3
SYMBOL cap 992 352 R0
SYMATTR InstName C1
SYMATTR Value 100µ
SYMATTR SpiceLine Rser=615m
TEXT -112 960 Left 2 !.tran 1u 20m
TEXT -112 904 Left 2 !.model DMP4047SSD PMOS(Rg=12.6 Rd=0 Rs=45m Vto=-1.0 Cgdmax=3.3n Cgdmin=3.3n Cgs=2.2n)
